Version 4
SHEET 1 880 680
WIRE 272 144 208 144
WIRE 400 144 336 144
WIRE 48 192 48 160
WIRE 48 192 0 192
WIRE 144 192 48 192
WIRE 48 224 48 192
WIRE 336 240 208 240
WIRE 336 256 336 240
FLAG -64 192 Vi
IOPIN -64 192 In
FLAG 48 304 0
FLAG 208 320 0
FLAG 336 320 0
FLAG 400 224 0
FLAG 208 64 Vcc
IOPIN 208 64 In
FLAG 48 80 Vcc
IOPIN 48 80 In
FLAG -240 288 0
FLAG -336 288 0
FLAG -336 208 Vcc
IOPIN -336 208 Out
FLAG -240 208 Vi
IOPIN -240 208 Out
FLAG 448 144 Vo
IOPIN 448 144 Out
SYMBOL npn 144 144 R0
SYMATTR InstName Q1
SYMBOL cap 336 128 R90
WINDOW 0 0 32 VBottom 2
WINDOW 3 32 32 VTop 2
SYMATTR InstName C1
SYMATTR Value 1µ
SYMBOL res 384 128 R0
SYMATTR InstName R1
SYMATTR Value 10k
SYMBOL res 192 48 R0
SYMATTR InstName R2
SYMATTR Value 3.6k
SYMBOL res 32 64 R0
SYMATTR InstName R3
SYMATTR Value 68k
SYMBOL res 32 208 R0
SYMATTR InstName R4
SYMATTR Value 47k
SYMBOL res 192 224 R0
SYMATTR InstName R5
SYMATTR Value 4.7k
SYMBOL cap 320 256 R0
SYMATTR InstName C2
SYMATTR Value 10µ
SYMBOL cap 0 176 R90
WINDOW 0 0 32 VBottom 2
WINDOW 3 32 32 VTop 2
SYMATTR InstName C3
SYMATTR Value 10µ
SYMBOL voltage -240 192 R0
WINDOW 123 0 0 Left 0
WINDOW 39 0 0 Left 0
SYMATTR InstName V1
SYMATTR Value AC 1
SYMBOL voltage -336 192 R0
WINDOW 123 0 0 Left 0
WINDOW 39 0 0 Left 0
SYMATTR InstName V2
SYMATTR Value 12
TEXT -360 360 Left 2 !.ac dec 20 1 1g
TEXT -352 384 Left 2 !;.op dec 20 1 1g
